this is an test file.
this is line two 
line 3 is this
thsi is line two
this this is line two
thsi is line two 
this this is 

Jonathan Ahlqvist Burgårdsgatan 14 1603, 41252 GÖTEBORG

simon gårdsgatan 14 1603, 41252 GÖTEBORG
Emma och Jonathan Ahlqvist Burgårdsgatan 14 1603, 41252 GÖTEBORG

new line.
Tue Jan 24 10:55:04 GST 2017
